**Material Num = 1
*Material, name=Material-1
*Conductivity
185.,
*Density
2663.,
*Specific Heat
0.943,