**Material Num = 1
*Material, name=Material-1
*Conductivity
270.,
*Density
2700.,
*Specific Heat
1.0,