************
** PARTS (Nodes)
************
*Node
1, 0, 0, 0
2, 1, 0, 0
3, 1, 0, 1
4, 0, 0, 1
5, 0, 1, 0
6, 1, 1, 0
7, 1, 1, 1
8, 0, 1, 1
9, 2, 0, 0
10, 3, 0, 0
11, 4, 0, 0
12, 5, 0, 0
13, 6, 0, 0
14, 7, 0, 0
15, 8, 0, 0
16, 9, 0, 0
17, 10, 0, 0
18, 2, 0, 1
19, 3, 0, 1
20, 4, 0, 1
** ... 255 like lines cut
************
** PARTS (Elements)
************
*Element, type=DCC3D8
1, 5, 6, 7, 8, 1, 2, 3, 4
2, 6, 27, 36, 7, 2, 9, 18, 3
3, 27, 28, 37, 36, 9, 10, 19, 18
4, 28, 29, 38, 37, 10, 11, 20, 19
5, 29, 30, 39, 38, 11, 12, 21, 20
6, 30, 31, 40, 39, 12, 13, 22, 21
7, 31, 32, 41, 40, 13, 14, 23, 22
8, 32, 33, 42, 41, 14, 15, 24, 23
9, 33, 34, 43, 42, 15, 16, 25, 24
10, 34, 35, 44, 43, 16, 17, 26, 25
11, 45, 48, 51, 54, 5, 6, 7, 8
12, 46, 49, 52, 55, 45, 48, 51, 54
13, 47, 50, 53, 56, 46, 49, 52, 55
14, 48, 57, 84, 51, 6, 27, 36, 7
15, 49, 58, 85, 52, 48, 57, 84, 51
16, 50, 59, 86, 53, 49, 58, 85, 52
17, 57, 60, 87, 84, 27, 28, 37, 36
18, 58, 61, 88, 85, 57, 60, 87, 84
19, 59, 62, 89, 86, 58, 61, 88, 85
20, 60, 63, 90, 87, 28, 29, 38, 37
** ... 140 like lines cut
************
** PARTS (Element sets & Node sets)
************
*Elset, elset=ELSet-1, generate
1, 160, 1
*Elset, elset=ig002
2
*Nset, nset=NSet-1, generate
1, 275, 1
*Nset, nset=NSet-fix
1, 4, 5, 8, 17, 26, 35, 44, 45, 46, 47, 54, 55
56, 81, 82, 83, 108, 109, 110, 111, 112, 113, 117, 118, 119
147, 148, 149, 174, 175, 176, 177, 178, 179, 180, 181, 182, 183
184, 185, 267, 268, 269, 270, 271, 272, 273, 274, 275
************
** PARTS (sections)
************
*Solid Section, elset=ELSet-1, material=Material-1
************
** MATERIAL
************
*Material, name=Material-1
*Conductivity
270.00, 270.00, 
*Density
2700.00, 2700.00, 
*Specific Heat
1.00, 
************
** Assigning Material
************
************
** Surface
************
*Elset, elset=_Surf-1_S4, generate
5, 125, 5
*Surface, type=ELEMENT, name=Surf-1
_Surf-1_S4, S4
************
** Table/Amplitude
************
*Amplitude, name=Amp-1, time=TOTALTIME
 0.00, 10.00,  2000.00, 10.00, 
************
** INITIAL CONDITION
************
*Initial Conditions, type=TEMPERATURE
NSet-1, 10.000000
**----------------------------------------------------------------
**
**STEP:Step-2
**
*Step, name=Step-2
*Heat Transfer, end=PERIOD
1., 1., , ,
**
**INTERACTIONS
**
**Interaction:Int-1
*Boundary, amplitude=Amp-1
NSet-fix, 11, 11, 0.0
**
**OUTPUT REQUESTS
**
*Restart, write, frequency=0
*Output ,field ,variable=PRESELECT
*Output ,history ,frequency=0
*End Step
